136_VUNQOM
  MatStudio         3D                             0

136150  0  0  0  0  0  0  0  0999 V2000
   14.3165   22.4776   16.6401 C   0  0  0  0  0  0  0  0  0  1
   15.6666   22.5080   16.7415 C   0  0  0  0  0  0  0  0  0  2
   13.5439   21.2124   16.4314 C   0  0  0  0  0  0  0  0  0  3
   12.3573   20.9881   17.0785 C   0  0  0  0  0  0  0  0  0  4
   12.0367   21.6298   17.6987 H   0  0  0  0  0  0  0  0  0  5
   11.6014   19.8082   16.8392 C   0  0  0  0  0  0  0  0  0  6
   10.8009   19.6393   17.3197 H   0  0  0  0  0  0  0  0  0  7
   12.0577   18.9255   15.9011 C   0  0  0  0  0  0  0  0  0  8
   13.2467   19.1124   15.2578 C   0  0  0  0  0  0  0  0  0  9
   13.5720   18.4549   14.6548 H   0  0  0  0  0  0  0  0  0 10
   13.9745   20.2597   15.4837 C   0  0  0  0  0  0  0  0  0 11
   14.7773   20.4117   14.9975 H   0  0  0  0  0  0  0  0  0 12
   10.9812   17.3313   14.5036 C   0  0  0  0  0  0  0  0  0 13
   10.4499   16.0163   14.3868 C   0  0  0  0  0  0  0  0  0 14
   10.1175   15.6110   13.1482 C   0  0  0  0  0  0  0  0  0 15
    9.7361   14.7509   13.0314 H   0  0  0  0  0  0  0  0  0 16
   10.3071   16.3834   12.0838 C   0  0  0  0  0  0  0  0  0 17
   10.8571   17.6691   12.2752 C   0  0  0  0  0  0  0  0  0 18
   10.2767   15.2688   15.5661 C   0  0  0  0  0  0  0  0  0 19
   10.0918   15.9488   10.7207 C   0  0  0  0  0  0  0  0  0 20
   13.5088   23.7169   16.6267 C   0  0  0  0  0  0  0  0  0 21
   13.6820   24.7417   17.5245 C   0  0  0  0  0  0  0  0  0 22
   14.2647   24.6268   18.2654 H   0  0  0  0  0  0  0  0  0 23
   13.0103   25.9508   17.3522 C   0  0  0  0  0  0  0  0  0 24
   13.1905   26.6781   17.9361 H   0  0  0  0  0  0  0  0  0 25
   12.1069   26.0904   16.3682 C   0  0  0  0  0  0  0  0  0 26
   11.8214   25.0344   15.5297 C   0  0  0  0  0  0  0  0  0 27
   11.1426   25.1177   14.8692 H   0  0  0  0  0  0  0  0  0 28
   12.5165   23.8703   15.6522 C   0  0  0  0  0  0  0  0  0 29
   12.3222   23.1475   15.0664 H   0  0  0  0  0  0  0  0  0 30
   11.4188   28.0810   15.1870 C   0  0  0  0  0  0  0  0  0 31
   10.8595   29.3712   15.2827 C   0  0  0  0  0  0  0  0  0 32
   10.8080   30.1390   14.1513 C   0  0  0  0  0  0  0  0  0 33
   10.4756   31.0284   14.1877 H   0  0  0  0  0  0  0  0  0 34
   11.2526   29.6008   12.9472 C   0  0  0  0  0  0  0  0  0 35
   11.8518   28.3557   12.9874 C   0  0  0  0  0  0  0  0  0 36
   10.3563   29.8418   16.5826 C   0  0  0  0  0  0  0  0  0 37
   11.1965   30.3574   11.6836 C   0  0  0  0  0  0  0  0  0 38
   16.5171   21.2651   16.8009 C   0  0  0  0  0  0  0  0  0 39
   17.6326   21.1277   15.9355 C   0  0  0  0  0  0  0  0  0 40
   17.8900   21.8798   15.4148 H   0  0  0  0  0  0  0  0  0 41
   18.3487   20.0019   15.8054 C   0  0  0  0  0  0  0  0  0 42
   19.0860   19.9546   15.2100 H   0  0  0  0  0  0  0  0  0 43
   17.9696   18.8918   16.5788 C   0  0  0  0  0  0  0  0  0 44
   16.9375   18.9908   17.4977 C   0  0  0  0  0  0  0  0  0 45
   16.7151   18.2500   18.0471 H   0  0  0  0  0  0  0  0  0 46
   16.2143   20.2090   17.6087 C   0  0  0  0  0  0  0  0  0 47
   15.5169   20.2901   18.2501 H   0  0  0  0  0  0  0  0  0 48
   18.8309   17.0093   15.4435 C   0  0  0  0  0  0  0  0  0 49
   19.3668   15.6831   15.5393 C   0  0  0  0  0  0  0  0  0 50
   19.5072   14.9243   14.3791 C   0  0  0  0  0  0  0  0  0 51
   19.8443   14.0371   14.4155 H   0  0  0  0  0  0  0  0  0 52
   19.1468   15.4894   13.1826 C   0  0  0  0  0  0  0  0  0 53
   18.6249   16.8067   13.1367 C   0  0  0  0  0  0  0  0  0 54
   19.6898   15.1787   16.8296 C   0  0  0  0  0  0  0  0  0 55
   19.3083   14.7644   11.9249 C   0  0  0  0  0  0  0  0  0 56
   16.4743   23.7885   16.6458 C   0  0  0  0  0  0  0  0  0 57
   16.1511   24.7417   15.6905 C   0  0  0  0  0  0  0  0  0 58
   15.3905   24.6021   15.1392 H   0  0  0  0  0  0  0  0  0 59
   16.9164   25.9036   15.5163 C   0  0  0  0  0  0  0  0  0 60
   16.7151   26.5385   14.8386 H   0  0  0  0  0  0  0  0  0 61
   17.9836   26.0837   16.3873 C   0  0  0  0  0  0  0  0  0 62
   18.3183   25.1718   17.3273 C   0  0  0  0  0  0  0  0  0 63
   19.0766   25.3069   17.8844 H   0  0  0  0  0  0  0  0  0 64
   17.5273   24.0324   17.4652 C   0  0  0  0  0  0  0  0  0 65
   17.7309   23.4087   18.1524 H   0  0  0  0  0  0  0  0  0 66
   19.1515   27.7770   15.1774 C   0  0  0  0  0  0  0  0  0 67
   19.7062   29.1077   15.2062 C   0  0  0  0  0  0  0  0  0 68
   20.1298   29.6414   14.0479 C   0  0  0  0  0  0  0  0  0 69
   20.4645   30.5285   14.0288 H   0  0  0  0  0  0  0  0  0 70
   20.0783   28.8848   12.8648 C   0  0  0  0  0  0  0  0  0 71
   19.6032   27.6148   12.9682 C   0  0  0  0  0  0  0  0  0 72
   19.7787   29.8575   16.4390 C   0  0  0  0  0  0  0  0  0 73
   20.4481   29.4072   11.5630 C   0  0  0  0  0  0  0  0  0 74
   14.6977   22.7561   11.3869 C   0  0  0  0  0  0  0  0  0 75
   16.0505   22.4657   11.4309 C   0  0  0  0  0  0  0  0  0 76
   13.7030   21.6402   11.2893 C   0  0  0  0  0  0  0  0  0 77
   12.6241   21.6276   12.1431 C   0  0  0  0  0  0  0  0  0 78
   12.4790   22.3639   12.7251 H   0  0  0  0  0  0  0  0  0 79
   11.7582   20.5760   12.1642 C   0  0  0  0  0  0  0  0  0 80
   11.0607   20.5468   12.8093 H   0  0  0  0  0  0  0  0  0 81
   11.8939   19.5403   11.2395 C   0  0  0  0  0  0  0  0  0 82
   12.9237   19.5650   10.3359 C   0  0  0  0  0  0  0  0  0 83
   13.0337   18.8512    9.7175 H   0  0  0  0  0  0  0  0  0 84
   13.8130   20.6436   10.3244 C   0  0  0  0  0  0  0  0  0 85
   14.4894   20.6976    9.6601 H   0  0  0  0  0  0  0  0  0 86
   14.1400   24.1272   11.4999 C   0  0  0  0  0  0  0  0  0 87
   13.0290   24.5030   10.7379 C   0  0  0  0  0  0  0  0  0 88
   12.6803   23.8770   10.1119 H   0  0  0  0  0  0  0  0  0 89
   12.4205   25.7122   10.8451 C   0  0  0  0  0  0  0  0  0 90
   11.6833   25.9441   10.2919 H   0  0  0  0  0  0  0  0  0 91
   12.9073   26.5836   11.7775 C   0  0  0  0  0  0  0  0  0 92
   14.0518   26.3089   12.5470 C   0  0  0  0  0  0  0  0  0 93
   14.4145   26.9551   13.1405 H   0  0  0  0  0  0  0  0  0 94
   14.6228   25.0659   12.4073 C   0  0  0  0  0  0  0  0  0 95
   15.3717   24.8408   12.9452 H   0  0  0  0  0  0  0  0  0 96
   17.0732   23.5681   11.4463 C   0  0  0  0  0  0  0  0  0 97
   18.0850   23.5469   12.4054 C   0  0  0  0  0  0  0  0  0 98
   18.1755   22.7940   12.9778 H   0  0  0  0  0  0  0  0  0 99
   18.9713   24.6246   12.5356 C   0  0  0  0  0  0  0  0  0100
   19.6874   24.6021   13.1597 H   0  0  0  0  0  0  0  0  0101
   18.7653   25.7054   11.7315 C   0  0  0  0  0  0  0  0  0102
   17.8432   25.7482   10.7264 C   0  0  0  0  0  0  0  0  0103
   17.7941   26.5003   10.1483 H   0  0  0  0  0  0  0  0  0104
   16.9679   24.6561   10.5618 C   0  0  0  0  0  0  0  0  0105
   16.3196   24.6539    9.8669 H   0  0  0  0  0  0  0  0  0106
   16.6161   21.1043   11.5688 C   0  0  0  0  0  0  0  0  0107
   17.7683   20.7494   10.8930 C   0  0  0  0  0  0  0  0  0108
   18.1872   21.3799   10.3168 H   0  0  0  0  0  0  0  0  0109
   18.3253   19.4813   11.0442 C   0  0  0  0  0  0  0  0  0110
   19.0953   19.2228   10.5503 H   0  0  0  0  0  0  0  0  0111
   17.7309   18.6227   11.9210 C   0  0  0  0  0  0  0  0  0112
   16.6192   18.8985   12.5662 C   0  0  0  0  0  0  0  0  0113
   16.2166   18.2455   13.1252 H   0  0  0  0  0  0  0  0  0114
   16.0271   20.1752   12.4226 C   0  0  0  0  0  0  0  0  0115
   15.2383   20.3936   12.9031 H   0  0  0  0  0  0  0  0  0116
   11.1745   18.1302   13.4717 N   0  0  0  0  0  0  0  0  0117
   10.1082   14.6203   16.5290 N   0  0  0  0  0  0  0  0  0118
    9.8741   15.5930    9.6486 N   0  0  0  0  0  0  0  0  0119
   11.9028   27.5962   14.0767 N   0  0  0  0  0  0  0  0  0120
   10.0029   30.2403   17.5475 N   0  0  0  0  0  0  0  0  0121
   11.2012   30.9271   10.7437 N   0  0  0  0  0  0  0  0  0122
   18.5102   17.5380   14.2853 N   0  0  0  0  0  0  0  0  0123
   20.0034   14.7509   17.8461 N   0  0  0  0  0  0  0  0  0124
   19.4862   14.1722   10.9677 N   0  0  0  0  0  0  0  0  0125
   19.1201   27.0672   14.0862 N   0  0  0  0  0  0  0  0  0126
   19.7670   30.3754   17.4498 N   0  0  0  0  0  0  0  0  0127
   20.7289   29.7855   10.5427 N   0  0  0  0  0  0  0  0  0128
   11.2917   17.7706   15.7529 O   0  0  0  0  0  0  0  0  0129
   11.4038   27.3570   16.3050 O   0  0  0  0  0  0  0  0  0130
   18.6565   17.6781   16.5650 O   0  0  0  0  0  0  0  0  0131
   18.7169   27.3068   16.3267 O   0  0  0  0  0  0  0  0  0132
   11.0738   18.4230   11.1687 O   0  0  0  0  0  0  0  0  0133
   12.3166   27.8643   11.8100 O   0  0  0  0  0  0  0  0  0134
   18.3555   17.3169   11.9829 O   0  0  0  0  0  0  0  0  0135
   19.5903   26.8770   11.8090 O   0  0  0  0  0  0  0  0  0136
  2  1  2  0  0  0
  3  1  1  0  0  0
  4  3  2  0  0  0
  5  4  1  0  0  0
  6  4  1  0  0  0
  7  6  1  0  0  0
  8  6  2  0  0  0
  9  8  1  0  0  0
 10  9  1  0  0  0
 11  9  2  0  0  0
 11  3  1  0  0  0
 12 11  1  0  0  0
 14 13  1  0  0  0
 15 14  2  0  0  0
 16 15  1  0  0  0
 17 15  1  0  0  0
 18 17  2  0  0  0
 19 14  1  0  0  0
 20 17  1  0  0  0
 21  1  1  0  0  0
 22 21  2  0  0  0
 23 22  1  0  0  0
 24 22  1  0  0  0
 25 24  1  0  0  0
 26 24  2  0  0  0
 27 26  1  0  0  0
 28 27  1  0  0  0
 29 27  2  0  0  0
 29 21  1  0  0  0
 30 29  1  0  0  0
 32 31  1  0  0  0
 33 32  2  0  0  0
 34 33  1  0  0  0
 35 33  1  0  0  0
 36 35  2  0  0  0
 37 32  1  0  0  0
 38 35  1  0  0  0
 39  2  1  0  0  0
 40 39  2  0  0  0
 41 40  1  0  0  0
 42 40  1  0  0  0
 43 42  1  0  0  0
 44 42  2  0  0  0
 45 44  1  0  0  0
 46 45  1  0  0  0
 47 39  1  0  0  0
 47 45  2  0  0  0
 48 47  1  0  0  0
 50 49  1  0  0  0
 51 50  2  0  0  0
 52 51  1  0  0  0
 53 51  1  0  0  0
 54 53  2  0  0  0
 55 50  1  0  0  0
 56 53  1  0  0  0
 57  2  1  0  0  0
 58 57  2  0  0  0
 59 58  1  0  0  0
 60 58  1  0  0  0
 61 60  1  0  0  0
 62 60  2  0  0  0
 63 62  1  0  0  0
 64 63  1  0  0  0
 65 57  1  0  0  0
 65 63  2  0  0  0
 66 65  1  0  0  0
 68 67  1  0  0  0
 69 68  2  0  0  0
 70 69  1  0  0  0
 71 69  1  0  0  0
 72 71  2  0  0  0
 73 68  1  0  0  0
 74 71  1  0  0  0
 76 75  2  0  0  0
 77 75  1  0  0  0
 78 77  2  0  0  0
 79 78  1  0  0  0
 80 78  1  0  0  0
 81 80  1  0  0  0
 82 80  2  0  0  0
 83 82  1  0  0  0
 84 83  1  0  0  0
 85 83  2  0  0  0
 85 77  1  0  0  0
 86 85  1  0  0  0
 87 75  1  0  0  0
 88 87  2  0  0  0
 89 88  1  0  0  0
 90 88  1  0  0  0
 91 90  1  0  0  0
 92 90  2  0  0  0
 93 92  1  0  0  0
 94 93  1  0  0  0
 95 93  2  0  0  0
 95 87  1  0  0  0
 96 95  1  0  0  0
 97 76  1  0  0  0
 98 97  2  0  0  0
 99 98  1  0  0  0
100 98  1  0  0  0
101100  1  0  0  0
102100  2  0  0  0
103102  1  0  0  0
104103  1  0  0  0
105103  2  0  0  0
105 97  1  0  0  0
106105  1  0  0  0
107 76  1  0  0  0
108107  2  0  0  0
109108  1  0  0  0
110108  1  0  0  0
111110  1  0  0  0
112110  2  0  0  0
113112  1  0  0  0
114113  1  0  0  0
115113  2  0  0  0
115107  1  0  0  0
116115  1  0  0  0
117 18  1  0  0  0
117 13  2  0  0  0
118 19  3  0  0  0
119 20  3  0  0  0
120 36  1  0  0  0
120 31  2  0  0  0
121 37  3  0  0  0
122 38  3  0  0  0
123 49  2  0  0  0
123 54  1  0  0  0
124 55  3  0  0  0
125 56  3  0  0  0
126 72  1  0  0  0
126 67  2  0  0  0
127 73  3  0  0  0
128 74  3  0  0  0
129  8  1  0  0  0
129 13  1  0  0  0
130 26  1  0  0  0
130 31  1  0  0  0
131 44  1  0  0  0
131 49  1  0  0  0
132 62  1  0  0  0
132 67  1  0  0  0
133 82  1  0  0  0
133 18  1  0  0  0
134 92  1  0  0  0
134 36  1  0  0  0
135112  1  0  0  0
135 54  1  0  0  0
136102  1  0  0  0
136 72  1  0  0  0
M  END
