228_GANDOQ
  MatStudio         3D                             0

228246  0  0  0  0  0  0  0  0999 V2000
   13.2916    5.7349   16.6325 N   0  0  0  0  0  0  0  0  0  1
   11.9442    4.2912   14.5806 N   0  0  0  0  0  0  0  0  0  2
   16.0689    4.0502    9.6665 N   0  0  0  0  0  0  0  0  0  3
   18.5678    5.4064    9.3001 N   0  0  0  0  0  0  0  0  0  4
   12.7976    3.5972   22.3505 F   0  0  0  0  0  0  0  0  0  5
    7.6960    0.3655   17.0118 F   0  0  0  0  0  0  0  0  0  6
   16.2585   -1.7244    7.3280 F   0  0  0  0  0  0  0  0  0  7
   22.5564    2.7204    5.4184 F   0  0  0  0  0  0  0  0  0  8
   15.5657    7.4699   16.1798 C   0  0  0  0  0  0  0  0  0  9
   15.7462    6.5375   16.1583 H   0  0  0  0  0  0  0  0  0 10
   14.2306    7.9176   16.1971 C   0  0  0  0  0  0  0  0  0 11
   13.1050    6.9746   16.3760 C   0  0  0  0  0  0  0  0  0 12
   12.2149    7.2978   16.2984 H   0  0  0  0  0  0  0  0  0 13
   12.0910    4.9270   16.9363 C   0  0  0  0  0  0  0  0  0 14
   11.2774    5.4938   16.8157 H   0  0  0  0  0  0  0  0  0 15
   12.0406    3.7429   15.9320 C   0  0  0  0  0  0  0  0  0 16
   12.8817    3.2078   16.0117 H   0  0  0  0  0  0  0  0  0 17
   12.9811    4.3124   13.8694 C   0  0  0  0  0  0  0  0  0 18
   13.7779    3.9283   14.2120 H   0  0  0  0  0  0  0  0  0 19
   12.9995    4.9111   12.5374 C   0  0  0  0  0  0  0  0  0 20
   11.9718    5.7322   12.1236 C   0  0  0  0  0  0  0  0  0 21
   11.2683    5.9230   12.7314 H   0  0  0  0  0  0  0  0  0 22
   11.9335    6.2965   10.8412 C   0  0  0  0  0  0  0  0  0 23
   12.9888    5.9574    9.9489 C   0  0  0  0  0  0  0  0  0 24
   12.9765    6.3071    9.0652 H   0  0  0  0  0  0  0  0  0 25
   14.0303    5.1336   10.3260 C   0  0  0  0  0  0  0  0  0 26
   14.0532    4.6224   11.6408 C   0  0  0  0  0  0  0  0  0 27
   14.7796    4.0793   11.9231 H   0  0  0  0  0  0  0  0  0 28
   15.0809    4.8184    9.3906 C   0  0  0  0  0  0  0  0  0 29
   15.0412    5.1998    8.5199 H   0  0  0  0  0  0  0  0  0 30
   16.9911    3.7085    8.6061 C   0  0  0  0  0  0  0  0  0 31
   16.7831    4.2595    7.8000 H   0  0  0  0  0  0  0  0  0 32
   18.4149    4.0025    9.0544 C   0  0  0  0  0  0  0  0  0 33
   18.5801    3.5151    9.9122 H   0  0  0  0  0  0  0  0  0 34
   10.8309    7.1997   10.4661 C   0  0  0  0  0  0  0  0  0 35
   10.1885    7.4223   11.1278 H   0  0  0  0  0  0  0  0  0 36
   12.1721    4.4846   18.3502 C   0  0  0  0  0  0  0  0  0 37
   13.2686    3.7456   18.8309 C   0  0  0  0  0  0  0  0  0 38
   13.9400    3.4992   18.2080 H   0  0  0  0  0  0  0  0  0 39
   13.4338    3.3641   20.1111 C   0  0  0  0  0  0  0  0  0 40
   14.1343    2.7708   20.3611 H   0  0  0  0  0  0  0  0  0 41
   12.6171    3.8250   20.9818 C   0  0  0  0  0  0  0  0  0 42
   11.4854    4.6144   20.6736 C   0  0  0  0  0  0  0  0  0 43
   10.9058    4.9508   21.3461 H   0  0  0  0  0  0  0  0  0 44
   11.2652    4.8846   19.2662 C   0  0  0  0  0  0  0  0  0 45
   10.4822    5.3402   18.9882 H   0  0  0  0  0  0  0  0  0 46
   10.8706    2.8608   16.2100 C   0  0  0  0  0  0  0  0  0 47
   11.0939    1.5417   16.6066 C   0  0  0  0  0  0  0  0  0 48
   11.9779    1.2132   16.7100 H   0  0  0  0  0  0  0  0  0 49
    9.9714    0.6834   16.8609 C   0  0  0  0  0  0  0  0  0 50
   10.0968   -0.2172   17.1303 H   0  0  0  0  0  0  0  0  0 51
    8.7616    1.1788   16.7122 C   0  0  0  0  0  0  0  0  0 52
    8.4864    2.5085   16.3135 C   0  0  0  0  0  0  0  0  0 53
    7.5978    2.8396   16.2316 H   0  0  0  0  0  0  0  0  0 54
    9.5722    3.2820   16.0505 C   0  0  0  0  0  0  0  0  0 55
    9.4254    4.1667   15.7402 H   0  0  0  0  0  0  0  0  0 56
   16.8137    2.2357    8.2634 C   0  0  0  0  0  0  0  0  0 57
   16.5996    1.8436    6.9401 C   0  0  0  0  0  0  0  0  0 58
   16.5720    2.4953    6.2504 H   0  0  0  0  0  0  0  0  0 59
   16.4344    0.5245    6.6319 C   0  0  0  0  0  0  0  0  0 60
   16.3166    0.2569    5.7266 H   0  0  0  0  0  0  0  0  0 61
   16.4359   -0.4106    7.6233 C   0  0  0  0  0  0  0  0  0 62
   16.6454   -0.0954    8.9337 C   0  0  0  0  0  0  0  0  0 63
   16.6562   -0.7655    9.6062 H   0  0  0  0  0  0  0  0  0 64
   16.8519    1.2847    9.2549 C   0  0  0  0  0  0  0  0  0 65
   17.0140    1.5443   10.1536 H   0  0  0  0  0  0  0  0  0 66
   19.4686    3.5442    8.0371 C   0  0  0  0  0  0  0  0  0 67
   19.5145    4.1270    6.7957 C   0  0  0  0  0  0  0  0  0 68
   18.8416    4.7521    6.5456 H   0  0  0  0  0  0  0  0  0 69
   20.5422    3.8197    5.8904 C   0  0  0  0  0  0  0  0  0 70
   20.5606    4.2171    5.0283 H   0  0  0  0  0  0  0  0  0 71
   21.4843    2.9615    6.2655 C   0  0  0  0  0  0  0  0  0 72
   21.4629    2.3257    7.4703 C   0  0  0  0  0  0  0  0  0 73
   22.1373    1.7033    7.7117 H   0  0  0  0  0  0  0  0  0 74
   20.4015    2.6277    8.3453 C   0  0  0  0  0  0  0  0  0 75
   20.3434    2.1721    9.1773 H   0  0  0  0  0  0  0  0  0 76
   13.6143   12.1108   16.6325 N   0  0  0  0  0  0  0  0  0 77
   18.9746    8.6434   16.6325 N   0  0  0  0  0  0  0  0  0 78
   13.0377   13.9995   14.5806 N   0  0  0  0  0  0  0  0  0 79
   20.8986    8.1984   14.5806 N   0  0  0  0  0  0  0  0  0 80
   10.7666   10.5480    9.6665 N   0  0  0  0  0  0  0  0  0 81
   19.0450   11.8910    9.6665 N   0  0  0  0  0  0  0  0  0 82
   10.6917    7.7057    9.3001 N   0  0  0  0  0  0  0  0  0 83
   16.6210   13.3770    9.3001 N   0  0  0  0  0  0  0  0  0 84
   21.0729    9.2844   22.3505 F   0  0  0  0  0  0  0  0  0 85
   12.0100   13.6075   22.3505 F   0  0  0  0  0  0  0  0  0 86
   26.4224    6.4822   17.0118 F   0  0  0  0  0  0  0  0  0 87
   11.7621   19.6414   17.0118 F   0  0  0  0  0  0  0  0  0 88
   23.9512   14.9425    7.3280 F   0  0  0  0  0  0  0  0  0 89
    5.6708   13.2710    7.3280 F   0  0  0  0  0  0  0  0  0 90
   16.9528   18.1742    5.4184 F   0  0  0  0  0  0  0  0  0 91
    6.3713    5.5945    5.4184 F   0  0  0  0  0  0  0  0  0 92
   16.3350    9.7453   16.1798 C   0  0  0  0  0  0  0  0  0 93
   13.9798    9.2738   16.1798 C   0  0  0  0  0  0  0  0  0 94
   17.0523   10.3678   16.1583 H   0  0  0  0  0  0  0  0  0 95
   13.0821    9.5838   16.1583 H   0  0  0  0  0  0  0  0  0 96
   16.6149    8.3653   16.1971 C   0  0  0  0  0  0  0  0  0 97
   15.0350   10.2063   16.1971 C   0  0  0  0  0  0  0  0  0 98
   14.7812   11.6526   16.3760 C   0  0  0  0  0  0  0  0  0 99
   17.9943    7.8620   16.3760 C   0  0  0  0  0  0  0  0  0100
   18.1595    6.9296   16.2984 H   0  0  0  0  0  0  0  0  0101
   15.5061   12.2618   16.2984 H   0  0  0  0  0  0  0  0  0102
   13.5149   13.5545   16.9363 C   0  0  0  0  0  0  0  0  0103
   20.2746    8.0077   16.9363 C   0  0  0  0  0  0  0  0  0104
   14.4126   13.9757   16.8157 H   0  0  0  0  0  0  0  0  0105
   20.1905    7.0196   16.8157 H   0  0  0  0  0  0  0  0  0106
   12.5147   14.1902   15.9320 C   0  0  0  0  0  0  0  0  0107
   21.3253    8.5560   15.9320 C   0  0  0  0  0  0  0  0  0108
   21.3681    9.5520   16.0117 H   0  0  0  0  0  0  0  0  0109
   11.6307   13.7293   16.0117 H   0  0  0  0  0  0  0  0  0110
   12.5376   13.0909   13.8694 C   0  0  0  0  0  0  0  0  0111
   20.3618    9.0858   13.8694 C   0  0  0  0  0  0  0  0  0112
   11.8066   12.5929   14.2120 H   0  0  0  0  0  0  0  0  0113
   20.2960    9.9679   14.2120 H   0  0  0  0  0  0  0  0  0114
   13.0469   12.7757   12.5374 C   0  0  0  0  0  0  0  0  0115
   19.8341    8.8023   12.5374 C   0  0  0  0  0  0  0  0  0116
   14.2719   13.2552   12.1236 C   0  0  0  0  0  0  0  0  0117
   19.6369    7.5017   12.1236 C   0  0  0  0  0  0  0  0  0118
   14.7888   13.7690   12.7314 H   0  0  0  0  0  0  0  0  0119
   19.8234    6.7971   12.7314 H   0  0  0  0  0  0  0  0  0120
   14.7796   13.0062   10.8412 C   0  0  0  0  0  0  0  0  0121
   19.1673    7.1865   10.8412 C   0  0  0  0  0  0  0  0  0122
   13.9584   12.2618    9.9489 C   0  0  0  0  0  0  0  0  0123
   18.9334    8.2699    9.9489 C   0  0  0  0  0  0  0  0  0124
   14.2673   12.0976    9.0652 H   0  0  0  0  0  0  0  0  0125
   18.6367    8.0845    9.0652 H   0  0  0  0  0  0  0  0  0126
   12.7242   11.7718   10.3260 C   0  0  0  0  0  0  0  0  0127
   19.1261    9.5838   10.3260 C   0  0  0  0  0  0  0  0  0128
   12.2700   12.0075   11.6408 C   0  0  0  0  0  0  0  0  0129
   19.5573    9.8593   11.6408 C   0  0  0  0  0  0  0  0  0130
   11.4365   11.6499   11.9231 H   0  0  0  0  0  0  0  0  0131
   19.6644   10.7599   11.9231 H   0  0  0  0  0  0  0  0  0132
   11.9259   11.0195    9.3906 C   0  0  0  0  0  0  0  0  0133
   18.8737   10.6513    9.3906 C   0  0  0  0  0  0  0  0  0134
   18.5633   10.4261    8.5199 H   0  0  0  0  0  0  0  0  0135
   12.2761   10.8632    8.5199 H   0  0  0  0  0  0  0  0  0136
   10.0096    9.9202    8.6061 C   0  0  0  0  0  0  0  0  0137
   18.8798   12.8605    8.6061 C   0  0  0  0  0  0  0  0  0138
   10.5907    9.8248    7.8000 H   0  0  0  0  0  0  0  0  0139
   18.5067   12.4049    7.8000 H   0  0  0  0  0  0  0  0  0140
    9.5523    8.5401    9.0544 C   0  0  0  0  0  0  0  0  0141
   17.9133   13.9465    9.0544 C   0  0  0  0  0  0  0  0  0142
   18.2528   14.3333    9.9122 H   0  0  0  0  0  0  0  0  0143
    9.0476    8.6408    9.9122 H   0  0  0  0  0  0  0  0  0144
   18.9364    5.7799   10.4661 C   0  0  0  0  0  0  0  0  0145
   16.1132   13.5095   10.4661 C   0  0  0  0  0  0  0  0  0146
   16.6271   13.9545   11.1278 H   0  0  0  0  0  0  0  0  0147
   19.0649    5.1124   11.1278 H   0  0  0  0  0  0  0  0  0148
   20.6172    8.2990   18.3502 C   0  0  0  0  0  0  0  0  0149
   13.0912   13.7055   18.3502 C   0  0  0  0  0  0  0  0  0150
   20.7089    9.6182   18.8309 C   0  0  0  0  0  0  0  0  0151
   11.9029   13.1254   18.8309 C   0  0  0  0  0  0  0  0  0152
   20.5866   10.3228   18.2080 H   0  0  0  0  0  0  0  0  0153
   11.3539   12.6671   18.2080 H   0  0  0  0  0  0  0  0  0154
   20.9567    9.9520   20.1111 C   0  0  0  0  0  0  0  0  0155
   11.4900   13.1730   20.1111 C   0  0  0  0  0  0  0  0  0156
   21.1203   10.8552   20.3611 H   0  0  0  0  0  0  0  0  0157
   10.6259   12.8631   20.3611 H   0  0  0  0  0  0  0  0  0158
   20.9659    9.0142   20.9818 C   0  0  0  0  0  0  0  0  0159
   12.2975   13.6498   20.9818 C   0  0  0  0  0  0  0  0  0160
   20.8481    7.6395   20.6736 C   0  0  0  0  0  0  0  0  0161
   13.5470   14.2353   20.6736 C   0  0  0  0  0  0  0  0  0162
   20.8466    6.9693   21.3461 H   0  0  0  0  0  0  0  0  0163
   14.1281   14.5690   21.3461 H   0  0  0  0  0  0  0  0  0164
   20.7242    7.3136   19.2662 C   0  0  0  0  0  0  0  0  0165
   13.8911   14.2909   19.2662 C   0  0  0  0  0  0  0  0  0166
   20.7212    6.4077   18.9882 H   0  0  0  0  0  0  0  0  0167
   14.6772   14.7412   18.9882 H   0  0  0  0  0  0  0  0  0168
   22.6741    7.9838   16.2100 C   0  0  0  0  0  0  0  0  0169
   12.3357   15.6445   16.2100 C   0  0  0  0  0  0  0  0  0170
   23.7049    8.8368   16.6066 C   0  0  0  0  0  0  0  0  0171
   11.0817   16.1107   16.6066 C   0  0  0  0  0  0  0  0  0172
   23.5474    9.7665   16.7100 H   0  0  0  0  0  0  0  0  0173
   10.3552   15.5094   16.7100 H   0  0  0  0  0  0  0  0  0174
   25.0095    8.2937   16.8609 C   0  0  0  0  0  0  0  0  0175
   10.8997   17.5120   16.8609 C   0  0  0  0  0  0  0  0  0176
   25.7267    8.8527   17.1303 H   0  0  0  0  0  0  0  0  0177
   10.0570   17.8537   17.1303 H   0  0  0  0  0  0  0  0  0178
   25.1853    6.9984   16.7122 C   0  0  0  0  0  0  0  0  0179
   11.9335   18.3119   16.7122 C   0  0  0  0  0  0  0  0  0180
   24.1714    6.0951   16.3135 C   0  0  0  0  0  0  0  0  0181
   13.2228   17.8855   16.3135 C   0  0  0  0  0  0  0  0  0182
   24.3289    5.1601   16.2316 H   0  0  0  0  0  0  0  0  0183
   13.9538   18.4894   16.2316 H   0  0  0  0  0  0  0  0  0184
   22.9586    6.6488   16.0505 C   0  0  0  0  0  0  0  0  0185
   13.3497   16.5583   16.0505 C   0  0  0  0  0  0  0  0  0186
   22.2658    6.0793   15.7402 H   0  0  0  0  0  0  0  0  0187
   14.1893   16.2431   15.7402 H   0  0  0  0  0  0  0  0  0188
   20.2440   13.4432    8.2634 C   0  0  0  0  0  0  0  0  0189
    8.8228   10.8102    8.2634 C   0  0  0  0  0  0  0  0  0190
   20.6906   13.4538    6.9401 C   0  0  0  0  0  0  0  0  0191
    8.5904   11.1917    6.9401 C   0  0  0  0  0  0  0  0  0192
   20.1400   13.1042    6.2504 H   0  0  0  0  0  0  0  0  0193
    9.1685   10.8897    6.2504 H   0  0  0  0  0  0  0  0  0194
   21.9156   13.9704    6.6319 C   0  0  0  0  0  0  0  0  0195
    7.5305   11.9943    6.6319 C   0  0  0  0  0  0  0  0  0196
   22.2062   14.0021    5.7266 H   0  0  0  0  0  0  0  0  0197
    7.3577   12.2300    5.7266 H   0  0  0  0  0  0  0  0  0198
   22.7246   14.4392    7.6233 C   0  0  0  0  0  0  0  0  0199
    6.7200   12.4605    7.6233 C   0  0  0  0  0  0  0  0  0200
   22.3469   14.4631    8.9337 C   0  0  0  0  0  0  0  0  0201
    6.8882   12.1214    8.9337 C   0  0  0  0  0  0  0  0  0202
   22.9219   14.8074    9.6062 H   0  0  0  0  0  0  0  0  0203
    6.3025   12.4472    9.6062 H   0  0  0  0  0  0  0  0  0204
   21.0484   13.9518    9.2549 C   0  0  0  0  0  0  0  0  0205
    7.9801   11.2526    9.2549 C   0  0  0  0  0  0  0  0  0206
   20.7426   13.9624   10.1536 H   0  0  0  0  0  0  0  0  0207
    8.1239   10.9824   10.1536 H   0  0  0  0  0  0  0  0  0208
   17.7833   15.0882    8.0371 C   0  0  0  0  0  0  0  0  0209
    8.6286    7.8567    8.0371 C   0  0  0  0  0  0  0  0  0210
   17.2557   14.8366    6.7957 C   0  0  0  0  0  0  0  0  0211
    9.1103    7.5256    6.7957 C   0  0  0  0  0  0  0  0  0212
   17.0507   13.9412    6.5456 H   0  0  0  0  0  0  0  0  0213
    9.9882    7.7957    6.5456 H   0  0  0  0  0  0  0  0  0214
   17.0079   15.8802    5.8904 C   0  0  0  0  0  0  0  0  0215
    8.3304    6.7892    5.8904 C   0  0  0  0  0  0  0  0  0216
   16.6546   15.6975    5.0283 H   0  0  0  0  0  0  0  0  0217
    8.6653    6.5746    5.0283 H   0  0  0  0  0  0  0  0  0218
   17.2801   17.1252    6.2655 C   0  0  0  0  0  0  0  0  0219
    7.1161    6.4024    6.2655 C   0  0  0  0  0  0  0  0  0220
   17.8414   17.4245    7.4703 C   0  0  0  0  0  0  0  0  0221
    6.5762    6.7388    7.4703 C   0  0  0  0  0  0  0  0  0222
   18.0433   18.3199    7.7117 H   0  0  0  0  0  0  0  0  0223
    5.6999    6.4660    7.7117 H   0  0  0  0  0  0  0  0  0224
   18.1106   16.3544    8.3453 C   0  0  0  0  0  0  0  0  0225
    7.3684    7.5070    8.3453 C   0  0  0  0  0  0  0  0  0226
   18.5342   16.5319    9.1773 H   0  0  0  0  0  0  0  0  0227
    7.0029    7.7852    9.1773 H   0  0  0  0  0  0  0  0  0228
 10  9  1  0  0  0
 11  9  2  0  0  0
 12  1  2  0  0  0
 12 11  1  0  0  0
 13 12  1  0  0  0
 14  1  1  0  0  0
 15 14  1  0  0  0
 16  2  1  0  0  0
 16 14  1  0  0  0
 17 16  1  0  0  0
 18  2  2  0  0  0
 19 18  1  0  0  0
 20 18  1  0  0  0
 21 20  1  0  0  0
 22 21  1  0  0  0
 23 21  2  0  0  0
 24 23  1  0  0  0
 25 24  1  0  0  0
 26 24  2  0  0  0
 27 26  1  0  0  0
 27 20  2  0  0  0
 28 27  1  0  0  0
 29 26  1  0  0  0
 29  3  2  0  0  0
 30 29  1  0  0  0
 31  3  1  0  0  0
 32 31  1  0  0  0
 33  4  1  0  0  0
 33 31  1  0  0  0
 34 33  1  0  0  0
 35 23  1  0  0  0
 36 35  1  0  0  0
 37 14  1  0  0  0
 38 37  1  0  0  0
 39 38  1  0  0  0
 40 38  2  0  0  0
 41 40  1  0  0  0
 42 40  1  0  0  0
 42  5  1  0  0  0
 43 42  2  0  0  0
 44 43  1  0  0  0
 45 37  2  0  0  0
 45 43  1  0  0  0
 46 45  1  0  0  0
 47 16  1  0  0  0
 48 47  2  0  0  0
 49 48  1  0  0  0
 50 48  1  0  0  0
 51 50  1  0  0  0
 52  6  1  0  0  0
 52 50  2  0  0  0
 53 52  1  0  0  0
 54 53  1  0  0  0
 55 53  2  0  0  0
 55 47  1  0  0  0
 56 55  1  0  0  0
 57 31  1  0  0  0
 58 57  2  0  0  0
 59 58  1  0  0  0
 60 58  1  0  0  0
 61 60  1  0  0  0
 62  7  1  0  0  0
 62 60  2  0  0  0
 63 62  1  0  0  0
 64 63  1  0  0  0
 65 63  2  0  0  0
 65 57  1  0  0  0
 66 65  1  0  0  0
 67 33  1  0  0  0
 68 67  2  0  0  0
 69 68  1  0  0  0
 70 68  1  0  0  0
 71 70  1  0  0  0
 72  8  1  0  0  0
 72 70  2  0  0  0
 73 72  1  0  0  0
 74 73  1  0  0  0
 75 73  2  0  0  0
 75 67  1  0  0  0
 76 75  1  0  0  0
 83 35  2  0  0  0
 94 11  1  0  0  0
 95 93  1  0  0  0
 96 94  1  0  0  0
 97  9  1  0  0  0
 97 93  2  0  0  0
 98 94  2  0  0  0
 98 93  1  0  0  0
 99 77  2  0  0  0
 99 98  1  0  0  0
100 78  2  0  0  0
100 97  1  0  0  0
101100  1  0  0  0
102 99  1  0  0  0
103 77  1  0  0  0
104 78  1  0  0  0
105103  1  0  0  0
106104  1  0  0  0
107 79  1  0  0  0
107103  1  0  0  0
108 80  1  0  0  0
108104  1  0  0  0
109108  1  0  0  0
110107  1  0  0  0
111 79  2  0  0  0
112 80  2  0  0  0
113111  1  0  0  0
114112  1  0  0  0
115111  1  0  0  0
116112  1  0  0  0
117115  1  0  0  0
118116  1  0  0  0
119117  1  0  0  0
120118  1  0  0  0
121117  2  0  0  0
122118  2  0  0  0
123121  1  0  0  0
124122  1  0  0  0
125123  1  0  0  0
126124  1  0  0  0
127123  2  0  0  0
128124  2  0  0  0
129127  1  0  0  0
129115  2  0  0  0
130128  1  0  0  0
130116  2  0  0  0
131129  1  0  0  0
132130  1  0  0  0
133127  1  0  0  0
133 81  2  0  0  0
134 82  2  0  0  0
134128  1  0  0  0
135134  1  0  0  0
136133  1  0  0  0
137 81  1  0  0  0
138 82  1  0  0  0
139137  1  0  0  0
140138  1  0  0  0
141 83  1  0  0  0
141137  1  0  0  0
142 84  1  0  0  0
142138  1  0  0  0
143142  1  0  0  0
144141  1  0  0  0
145  4  2  0  0  0
145122  1  0  0  0
146 84  2  0  0  0
146121  1  0  0  0
147146  1  0  0  0
148145  1  0  0  0
149104  1  0  0  0
150103  1  0  0  0
151149  1  0  0  0
152150  1  0  0  0
153151  1  0  0  0
154152  1  0  0  0
155151  2  0  0  0
156152  2  0  0  0
157155  1  0  0  0
158156  1  0  0  0
159155  1  0  0  0
159 85  1  0  0  0
160156  1  0  0  0
160 86  1  0  0  0
161159  2  0  0  0
162160  2  0  0  0
163161  1  0  0  0
164162  1  0  0  0
165149  2  0  0  0
165161  1  0  0  0
166150  2  0  0  0
166162  1  0  0  0
167165  1  0  0  0
168166  1  0  0  0
169108  1  0  0  0
170107  1  0  0  0
171169  2  0  0  0
172170  2  0  0  0
173171  1  0  0  0
174172  1  0  0  0
175171  1  0  0  0
176172  1  0  0  0
177175  1  0  0  0
178176  1  0  0  0
179 87  1  0  0  0
179175  2  0  0  0
180 88  1  0  0  0
180176  2  0  0  0
181179  1  0  0  0
182180  1  0  0  0
183181  1  0  0  0
184182  1  0  0  0
185181  2  0  0  0
185169  1  0  0  0
186182  2  0  0  0
186170  1  0  0  0
187185  1  0  0  0
188186  1  0  0  0
189138  1  0  0  0
190137  1  0  0  0
191189  2  0  0  0
192190  2  0  0  0
193191  1  0  0  0
194192  1  0  0  0
195191  1  0  0  0
196192  1  0  0  0
197195  1  0  0  0
198196  1  0  0  0
199 89  1  0  0  0
199195  2  0  0  0
200 90  1  0  0  0
200196  2  0  0  0
201199  1  0  0  0
202200  1  0  0  0
203201  1  0  0  0
204202  1  0  0  0
205201  2  0  0  0
205189  1  0  0  0
206202  2  0  0  0
206190  1  0  0  0
207205  1  0  0  0
208206  1  0  0  0
209142  1  0  0  0
210141  1  0  0  0
211209  2  0  0  0
212210  1  0  0  0
213211  1  0  0  0
214212  1  0  0  0
215211  1  0  0  0
216212  2  0  0  0
217215  1  0  0  0
218216  1  0  0  0
219 91  1  0  0  0
219215  2  0  0  0
220216  1  0  0  0
220 92  1  0  0  0
221219  1  0  0  0
222220  2  0  0  0
223221  1  0  0  0
224222  1  0  0  0
225221  2  0  0  0
225209  1  0  0  0
226210  2  0  0  0
226222  1  0  0  0
227225  1  0  0  0
228226  1  0  0  0
M  END
