300_PIFHIY
  MatStudio         3D                             0

300324  0  0  0  0  0  0  0  0999 V2000
    9.3614   15.8735   16.0648 N   0  0  0  0  0  0  0  0  0  1
    8.2708   11.7441   12.0106 N   0  0  0  0  0  0  0  0  0  2
    7.7061   24.5046    5.5002 N   0  0  0  0  0  0  0  0  0  3
    6.8554   20.3920    1.6573 N   0  0  0  0  0  0  0  0  0  4
   16.9380   11.1940    1.1522 N   0  0  0  0  0  0  0  0  0  5
   18.5748   24.1323   15.2527 N   0  0  0  0  0  0  0  0  0  6
    9.1170   13.4515   15.9658 C   0  0  0  0  0  0  0  0  0  7
    8.3722   12.8779   14.9390 C   0  0  0  0  0  0  0  0  0  8
    8.7833   11.6770   14.3712 C   0  0  0  0  0  0  0  0  0  9
    9.9364   11.0497   14.8268 C   0  0  0  0  0  0  0  0  0 10
   10.6778   11.6233   15.8535 C   0  0  0  0  0  0  0  0  0 11
   10.2701   12.8243   16.4214 C   0  0  0  0  0  0  0  0  0 12
    7.1402   13.6495   14.3976 C   0  0  0  0  0  0  0  0  0 13
    6.8578   14.3204   15.0546 H   0  0  0  0  0  0  0  0  0 14
    6.4077   13.0222   14.2358 H   0  0  0  0  0  0  0  0  0 15
    7.3783   14.0956   13.5590 H   0  0  0  0  0  0  0  0  0 16
    8.6678   14.7497   16.6459 C   0  0  0  0  0  0  0  0  0 17
    7.6926   14.8671   16.5303 H   0  0  0  0  0  0  0  0  0 18
    8.8630   14.7028   17.6132 H   0  0  0  0  0  0  0  0  0 19
   11.1728   13.6595   17.3887 C   0  0  0  0  0  0  0  0  0 20
   11.2017   14.5887   17.0883 H   0  0  0  0  0  0  0  0  0 21
   12.0783   13.2872   17.3920 H   0  0  0  0  0  0  0  0  0 22
   10.8016   13.6193   18.2966 H   0  0  0  0  0  0  0  0  0 23
   11.9784   10.9290   16.3124 C   0  0  0  0  0  0  0  0  0 24
   12.2218   11.2510   17.2137 H   0  0  0  0  0  0  0  0  0 25
   11.8205    9.9528   16.3718 H   0  0  0  0  0  0  0  0  0 26
   10.4010    9.7951   14.1533 C   0  0  0  0  0  0  0  0  0 27
   10.0112    9.0203   14.6089 H   0  0  0  0  0  0  0  0  0 28
   11.3786    9.7448   14.1962 H   0  0  0  0  0  0  0  0  0 29
   10.1143    9.8052   13.2190 H   0  0  0  0  0  0  0  0  0 30
    8.0042   11.1034   13.2553 C   0  0  0  0  0  0  0  0  0 31
    8.2203   10.1407   13.1760 H   0  0  0  0  0  0  0  0  0 32
    7.0396   11.1805   13.4600 H   0  0  0  0  0  0  0  0  0 33
    8.6610   25.0984    2.5322 C   0  0  0  0  0  0  0  0  0 34
    7.5222   24.6422    3.1925 C   0  0  0  0  0  0  0  0  0 35
    6.8484   23.5218    2.7171 C   0  0  0  0  0  0  0  0  0 36
    7.3086   22.8576    1.5880 C   0  0  0  0  0  0  0  0  0 37
    8.4433   23.3138    0.9310 C   0  0  0  0  0  0  0  0  0 38
    9.1212   24.4308    1.4031 C   0  0  0  0  0  0  0  0  0 39
    7.1033   25.2996    4.4404 C   0  0  0  0  0  0  0  0  0 40
    7.4296   26.2355    4.4735 H   0  0  0  0  0  0  0  0  0 41
    6.1183   25.3030    4.5230 H   0  0  0  0  0  0  0  0  0 42
    5.6288   23.1125    3.5920 C   0  0  0  0  0  0  0  0  0 43
    5.9469   22.6798    4.4140 H   0  0  0  0  0  0  0  0  0 44
    5.0645   22.4886    3.0934 H   0  0  0  0  0  0  0  0  0 45
    5.1091   23.9109    3.8264 H   0  0  0  0  0  0  0  0  0 46
    6.5263   21.6868    1.1159 C   0  0  0  0  0  0  0  0  0 47
    5.5698   21.8646    1.3140 H   0  0  0  0  0  0  0  0  0 48
    6.6176   21.6399    0.1321 H   0  0  0  0  0  0  0  0  0 49
    9.0144   22.4953   -0.1816 C   0  0  0  0  0  0  0  0  0 50
    8.5488   21.6332   -0.2245 H   0  0  0  0  0  0  0  0  0 51
    9.9685   22.3410   -0.0165 H   0  0  0  0  0  0  0  0  0 52
    8.9008   22.9716   -1.0300 H   0  0  0  0  0  0  0  0  0 53
   10.2641   24.8468    0.6471 C   0  0  0  0  0  0  0  0  0 54
   10.3757   25.8297    0.7065 H   0  0  0  0  0  0  0  0  0 55
   10.1563   24.5985   -0.3037 H   0  0  0  0  0  0  0  0  0 56
    9.4517   26.2557    3.0274 C   0  0  0  0  0  0  0  0  0 57
    8.8565   27.0171    3.1760 H   0  0  0  0  0  0  0  0  0 58
   10.1304   26.4972    2.3605 H   0  0  0  0  0  0  0  0  0 59
    9.8934   26.0141    3.8693 H   0  0  0  0  0  0  0  0  0 60
    8.7217   16.8195   15.6026 C   0  0  0  0  0  0  0  0  0 61
    7.7851   16.8295   15.7413 H   0  0  0  0  0  0  0  0  0 62
    9.3115   17.9264   14.8499 C   0  0  0  0  0  0  0  0  0 63
    8.5353   18.9093   14.2424 C   0  0  0  0  0  0  0  0  0 64
    7.5912   18.8892   14.3382 H   0  0  0  0  0  0  0  0  0 65
    9.1424   19.9157   13.5029 C   0  0  0  0  0  0  0  0  0 66
    8.6098   20.5866   13.0902 H   0  0  0  0  0  0  0  0  0 67
   10.5237   19.9425   13.3642 C   0  0  0  0  0  0  0  0  0 68
   11.3006   18.9596   13.9684 C   0  0  0  0  0  0  0  0  0 69
   12.2473   18.9764   13.8760 H   0  0  0  0  0  0  0  0  0 70
   10.6962   17.9533   14.7112 C   0  0  0  0  0  0  0  0  0 71
   11.2254   17.2824   15.1239 H   0  0  0  0  0  0  0  0  0 72
   11.0936   22.6596   10.7690 C   0  0  0  0  0  0  0  0  0 73
   12.3119   23.1796   11.1886 C   0  0  0  0  0  0  0  0  0 74
   12.6998   23.9109   10.7264 H   0  0  0  0  0  0  0  0  0 75
   12.9602   22.6261   12.2880 C   0  0  0  0  0  0  0  0  0 76
   12.3902   21.5527   12.9648 C   0  0  0  0  0  0  0  0  0 77
   12.8353   21.1770   13.7142 H   0  0  0  0  0  0  0  0  0 78
   11.1725   21.0361   12.5422 C   0  0  0  0  0  0  0  0  0 79
   10.5221   21.5896   11.4461 C   0  0  0  0  0  0  0  0  0 80
    9.6874   21.2340   11.1589 H   0  0  0  0  0  0  0  0  0 81
   16.4699   24.2799   14.1302 C   0  0  0  0  0  0  0  0  0 82
   16.4582   22.9414   13.7538 C   0  0  0  0  0  0  0  0  0 83
   17.2052   22.3913   13.9420 H   0  0  0  0  0  0  0  0  0 84
   15.3486   22.4148   13.1001 C   0  0  0  0  0  0  0  0  0 85
   15.3411   21.4990   12.8426 H   0  0  0  0  0  0  0  0  0 86
   14.2532   23.2232   12.8261 C   0  0  0  0  0  0  0  0  0 87
   14.2649   24.5616   13.2025 C   0  0  0  0  0  0  0  0  0 88
   13.5146   25.1151   13.0143 H   0  0  0  0  0  0  0  0  0 89
   15.3712   25.0883   13.8561 C   0  0  0  0  0  0  0  0  0 90
   15.3787   26.0041   14.1137 H   0  0  0  0  0  0  0  0  0 91
   17.6798   24.8334   14.8334 C   0  0  0  0  0  0  0  0  0 92
   17.7413   25.7760   14.9522 H   0  0  0  0  0  0  0  0  0 93
    9.1324   24.3637    7.3655 C   0  0  0  0  0  0  0  0  0 94
   10.0989   25.0950    8.0423 C   0  0  0  0  0  0  0  0  0 95
   10.2957   25.9873    7.7749 H   0  0  0  0  0  0  0  0  0 96
   10.7796   24.5281    9.1153 C   0  0  0  0  0  0  0  0  0 97
   11.4395   25.0279    9.5775 H   0  0  0  0  0  0  0  0  0 98
   10.4912   23.2266    9.5081 C   0  0  0  0  0  0  0  0  0 99
    9.5214   22.4953    8.8314 C   0  0  0  0  0  0  0  0  0100
    9.3238   21.6063    9.1021 H   0  0  0  0  0  0  0  0  0101
    8.8433   23.0622    7.7617 C   0  0  0  0  0  0  0  0  0102
    8.1801   22.5624    7.2995 H   0  0  0  0  0  0  0  0  0103
    8.4080   25.0514    6.2463 C   0  0  0  0  0  0  0  0  0104
    8.5323   25.9873    6.1407 H   0  0  0  0  0  0  0  0  0105
    8.7715   11.1504   11.0037 C   0  0  0  0  0  0  0  0  0106
    8.9660   10.2312   11.1457 H   0  0  0  0  0  0  0  0  0107
    9.1045   11.6368    9.6561 C   0  0  0  0  0  0  0  0  0108
    9.3335   10.8028    8.5672 C   0  0  0  0  0  0  0  0  0109
    9.3062    9.8589    8.6762 H   0  0  0  0  0  0  0  0  0110
    9.5981   11.3516    7.3160 C   0  0  0  0  0  0  0  0  0111
    9.7545   10.7814    6.5732 H   0  0  0  0  0  0  0  0  0112
    9.6365   12.7303    7.1565 C   0  0  0  0  0  0  0  0  0113
    9.4105   13.5632    8.2470 C   0  0  0  0  0  0  0  0  0114
    9.4385   14.5082    8.1347 H   0  0  0  0  0  0  0  0  0115
    9.1466   13.0155    9.4949 C   0  0  0  0  0  0  0  0  0116
    8.9895   13.5857   10.2411 H   0  0  0  0  0  0  0  0  0117
   10.0519   13.3476    5.8323 C   0  0  0  0  0  0  0  0  0118
   11.0259   12.7437    5.0479 C   0  0  0  0  0  0  0  0  0119
   11.4319   11.9320    5.3318 H   0  0  0  0  0  0  0  0  0120
   11.4111   13.3274    3.8462 C   0  0  0  0  0  0  0  0  0121
   10.8189   14.5149    3.4289 C   0  0  0  0  0  0  0  0  0122
   11.0800   14.9141    2.6081 H   0  0  0  0  0  0  0  0  0123
    9.8443   15.1174    4.2159 C   0  0  0  0  0  0  0  0  0124
    9.4591   14.5350    5.4177 C   0  0  0  0  0  0  0  0  0125
    8.7926   14.9477    5.9525 H   0  0  0  0  0  0  0  0  0126
    8.2177   18.8389    2.8326 C   0  0  0  0  0  0  0  0  0127
    9.5864   18.6007    2.8128 C   0  0  0  0  0  0  0  0  0128
   10.1799   19.2615    2.4728 H   0  0  0  0  0  0  0  0  0129
   10.0877   17.3964    3.2915 C   0  0  0  0  0  0  0  0  0130
   11.0237   17.2321    3.2783 H   0  0  0  0  0  0  0  0  0131
    9.2195   16.4303    3.7934 C   0  0  0  0  0  0  0  0  0132
    7.8508   16.6719    3.8132 C   0  0  0  0  0  0  0  0  0133
    7.2607   16.0110    4.1532 H   0  0  0  0  0  0  0  0  0134
    7.3503   17.8761    3.3312 C   0  0  0  0  0  0  0  0  0135
    6.4142   18.0371    3.3444 H   0  0  0  0  0  0  0  0  0136
    7.6321   20.0633    2.1856 C   0  0  0  0  0  0  0  0  0137
    8.2227   20.7945    2.3341 H   0  0  0  0  0  0  0  0  0138
   14.7410   12.0326    1.4923 C   0  0  0  0  0  0  0  0  0139
   13.5983   12.5156    0.8660 C   0  0  0  0  0  0  0  0  0140
   13.5674   12.5861   -0.0825 H   0  0  0  0  0  0  0  0  0141
   12.4953   12.8981    1.6243 C   0  0  0  0  0  0  0  0  0142
   11.7170   13.2301    1.1951 H   0  0  0  0  0  0  0  0  0143
   12.5378   12.7974    3.0109 C   0  0  0  0  0  0  0  0  0144
   13.6838   12.3144    3.6372 C   0  0  0  0  0  0  0  0  0145
   13.7113   12.2473    4.5857 H   0  0  0  0  0  0  0  0  0146
   14.7835   11.9353    2.8789 C   0  0  0  0  0  0  0  0  0147
   15.5617   11.6032    3.3080 H   0  0  0  0  0  0  0  0  0148
   15.8785   11.7240    0.6075 C   0  0  0  0  0  0  0  0  0149
   15.8404   11.9018   -0.3235 H   0  0  0  0  0  0  0  0  0150
   20.7018   15.8735    0.4424 N   0  0  0  0  0  0  0  0  0151
   21.7924   11.7441    4.4966 N   0  0  0  0  0  0  0  0  0152
   22.3571   24.5046   11.0070 N   0  0  0  0  0  0  0  0  0153
   23.2078   20.3920   14.8499 N   0  0  0  0  0  0  0  0  0154
   13.1252   11.1940   15.3550 N   0  0  0  0  0  0  0  0  0155
   11.4884   24.1323    1.2545 N   0  0  0  0  0  0  0  0  0156
   20.9462   13.4515    0.5414 C   0  0  0  0  0  0  0  0  0157
   21.6910   12.8779    1.5682 C   0  0  0  0  0  0  0  0  0158
   21.2799   11.6770    2.1360 C   0  0  0  0  0  0  0  0  0159
   20.1268   11.0497    1.6804 C   0  0  0  0  0  0  0  0  0160
   19.3854   11.6233    0.6537 C   0  0  0  0  0  0  0  0  0161
   19.7931   12.8243    0.0858 C   0  0  0  0  0  0  0  0  0162
   22.9230   13.6495    2.1096 C   0  0  0  0  0  0  0  0  0163
   23.2053   14.3204    1.4526 H   0  0  0  0  0  0  0  0  0164
   23.6555   13.0222    2.2714 H   0  0  0  0  0  0  0  0  0165
   22.6849   14.0956    2.9482 H   0  0  0  0  0  0  0  0  0166
   21.3954   14.7497   -0.1387 C   0  0  0  0  0  0  0  0  0167
   22.3705   14.8671   -0.0231 H   0  0  0  0  0  0  0  0  0168
   21.2002   14.7028   -1.1060 H   0  0  0  0  0  0  0  0  0169
   18.8904   13.6595   -0.8815 C   0  0  0  0  0  0  0  0  0170
   18.8615   14.5887   -0.5811 H   0  0  0  0  0  0  0  0  0171
   17.9849   13.2872   -0.8848 H   0  0  0  0  0  0  0  0  0172
   19.2616   13.6193   -1.7894 H   0  0  0  0  0  0  0  0  0173
   18.0847   10.9290    0.1948 C   0  0  0  0  0  0  0  0  0174
   17.8413   11.2510   -0.7065 H   0  0  0  0  0  0  0  0  0175
   18.2426    9.9528    0.1354 H   0  0  0  0  0  0  0  0  0176
   19.6622    9.7951    2.3539 C   0  0  0  0  0  0  0  0  0177
   20.0520    9.0203    1.8983 H   0  0  0  0  0  0  0  0  0178
   18.6846    9.7448    2.3110 H   0  0  0  0  0  0  0  0  0179
   19.9489    9.8052    3.2882 H   0  0  0  0  0  0  0  0  0180
   22.0590   11.1034    3.2519 C   0  0  0  0  0  0  0  0  0181
   21.8428   10.1407    3.3312 H   0  0  0  0  0  0  0  0  0182
   23.0236   11.1805    3.0472 H   0  0  0  0  0  0  0  0  0183
   21.4022   25.0984   13.9750 C   0  0  0  0  0  0  0  0  0184
   22.5410   24.6422   13.3147 C   0  0  0  0  0  0  0  0  0185
   23.2148   23.5218   13.7901 C   0  0  0  0  0  0  0  0  0186
   22.7546   22.8576   14.9192 C   0  0  0  0  0  0  0  0  0187
   21.6199   23.3138   15.5762 C   0  0  0  0  0  0  0  0  0188
   20.9420   24.4308   15.1041 C   0  0  0  0  0  0  0  0  0189
   22.9599   25.2996   12.0668 C   0  0  0  0  0  0  0  0  0190
   22.6336   26.2355   12.0337 H   0  0  0  0  0  0  0  0  0191
   23.9448   25.3030   11.9842 H   0  0  0  0  0  0  0  0  0192
   24.4344   23.1125   12.9152 C   0  0  0  0  0  0  0  0  0193
   24.1163   22.6798   12.0932 H   0  0  0  0  0  0  0  0  0194
   24.9987   22.4886   13.4138 H   0  0  0  0  0  0  0  0  0195
   24.9541   23.9109   12.6808 H   0  0  0  0  0  0  0  0  0196
   23.5369   21.6868   15.3913 C   0  0  0  0  0  0  0  0  0197
   24.4934   21.8646   15.1932 H   0  0  0  0  0  0  0  0  0198
   23.4455   21.6399   16.3751 H   0  0  0  0  0  0  0  0  0199
   21.0488   22.4953   16.6888 C   0  0  0  0  0  0  0  0  0200
   21.5144   21.6332   16.7317 H   0  0  0  0  0  0  0  0  0201
   20.0947   22.3410   16.5237 H   0  0  0  0  0  0  0  0  0202
   21.1623   22.9716   17.5372 H   0  0  0  0  0  0  0  0  0203
   19.7991   24.8468   15.8601 C   0  0  0  0  0  0  0  0  0204
   19.6875   25.8297   15.8007 H   0  0  0  0  0  0  0  0  0205
   19.9069   24.5985   16.8109 H   0  0  0  0  0  0  0  0  0206
   20.6115   26.2557   13.4798 C   0  0  0  0  0  0  0  0  0207
   21.2067   27.0171   13.3312 H   0  0  0  0  0  0  0  0  0208
   19.9328   26.4972   14.1467 H   0  0  0  0  0  0  0  0  0209
   20.1697   26.0141   12.6379 H   0  0  0  0  0  0  0  0  0210
   21.3415   16.8195    0.9046 C   0  0  0  0  0  0  0  0  0211
   22.2781   16.8295    0.7659 H   0  0  0  0  0  0  0  0  0212
   20.7517   17.9264    1.6573 C   0  0  0  0  0  0  0  0  0213
   21.5279   18.9093    2.2648 C   0  0  0  0  0  0  0  0  0214
   22.4720   18.8892    2.1690 H   0  0  0  0  0  0  0  0  0215
   20.9208   19.9157    3.0043 C   0  0  0  0  0  0  0  0  0216
   21.4534   20.5866    3.4170 H   0  0  0  0  0  0  0  0  0217
   19.5395   19.9425    3.1430 C   0  0  0  0  0  0  0  0  0218
   18.7626   18.9596    2.5388 C   0  0  0  0  0  0  0  0  0219
   17.8159   18.9764    2.6312 H   0  0  0  0  0  0  0  0  0220
   19.3670   17.9533    1.7960 C   0  0  0  0  0  0  0  0  0221
   18.8378   17.2824    1.3833 H   0  0  0  0  0  0  0  0  0222
   18.9696   22.6596    5.7382 C   0  0  0  0  0  0  0  0  0223
   17.7513   23.1796    5.3186 C   0  0  0  0  0  0  0  0  0224
   17.3634   23.9109    5.7808 H   0  0  0  0  0  0  0  0  0225
   17.1030   22.6261    4.2192 C   0  0  0  0  0  0  0  0  0226
   17.6730   21.5527    3.5424 C   0  0  0  0  0  0  0  0  0227
   17.2278   21.1770    2.7930 H   0  0  0  0  0  0  0  0  0228
   18.8907   21.0361    3.9650 C   0  0  0  0  0  0  0  0  0229
   19.5411   21.5896    5.0611 C   0  0  0  0  0  0  0  0  0230
   20.3758   21.2340    5.3483 H   0  0  0  0  0  0  0  0  0231
   13.5933   24.2799    2.3770 C   0  0  0  0  0  0  0  0  0232
   13.6050   22.9414    2.7534 C   0  0  0  0  0  0  0  0  0233
   12.8580   22.3913    2.5652 H   0  0  0  0  0  0  0  0  0234
   14.7146   22.4148    3.4071 C   0  0  0  0  0  0  0  0  0235
   14.7221   21.4990    3.6646 H   0  0  0  0  0  0  0  0  0236
   15.8100   23.2232    3.6811 C   0  0  0  0  0  0  0  0  0237
   15.7983   24.5616    3.3047 C   0  0  0  0  0  0  0  0  0238
   16.5486   25.1151    3.4929 H   0  0  0  0  0  0  0  0  0239
   14.6920   25.0883    2.6511 C   0  0  0  0  0  0  0  0  0240
   14.6845   26.0041    2.3935 H   0  0  0  0  0  0  0  0  0241
   12.3834   24.8334    1.6738 C   0  0  0  0  0  0  0  0  0242
   12.3219   25.7760    1.5550 H   0  0  0  0  0  0  0  0  0243
   20.9307   24.3637    9.1417 C   0  0  0  0  0  0  0  0  0244
   19.9643   25.0950    8.4649 C   0  0  0  0  0  0  0  0  0245
   19.7674   25.9873    8.7323 H   0  0  0  0  0  0  0  0  0246
   19.2836   24.5281    7.3919 C   0  0  0  0  0  0  0  0  0247
   18.6237   25.0279    6.9297 H   0  0  0  0  0  0  0  0  0248
   19.5720   23.2266    6.9991 C   0  0  0  0  0  0  0  0  0249
   20.5418   22.4953    7.6758 C   0  0  0  0  0  0  0  0  0250
   20.7394   21.6063    7.4051 H   0  0  0  0  0  0  0  0  0251
   21.2199   23.0622    8.7455 C   0  0  0  0  0  0  0  0  0252
   21.8831   22.5624    9.2077 H   0  0  0  0  0  0  0  0  0253
   21.6552   25.0514   10.2609 C   0  0  0  0  0  0  0  0  0254
   21.5309   25.9873   10.3665 H   0  0  0  0  0  0  0  0  0255
   21.2917   11.1504    5.5035 C   0  0  0  0  0  0  0  0  0256
   21.0972   10.2312    5.3615 H   0  0  0  0  0  0  0  0  0257
   20.9587   11.6368    6.8511 C   0  0  0  0  0  0  0  0  0258
   20.7297   10.8028    7.9400 C   0  0  0  0  0  0  0  0  0259
   20.7570    9.8589    7.8310 H   0  0  0  0  0  0  0  0  0260
   20.4651   11.3516    9.1912 C   0  0  0  0  0  0  0  0  0261
   20.3087   10.7814    9.9340 H   0  0  0  0  0  0  0  0  0262
   20.4267   12.7303    9.3507 C   0  0  0  0  0  0  0  0  0263
   20.6527   13.5632    8.2602 C   0  0  0  0  0  0  0  0  0264
   20.6247   14.5082    8.3725 H   0  0  0  0  0  0  0  0  0265
   20.9166   13.0155    7.0123 C   0  0  0  0  0  0  0  0  0266
   21.0737   13.5857    6.2661 H   0  0  0  0  0  0  0  0  0267
   20.0113   13.3476   10.6749 C   0  0  0  0  0  0  0  0  0268
   19.0372   12.7437   11.4593 C   0  0  0  0  0  0  0  0  0269
   18.6313   11.9320   11.1754 H   0  0  0  0  0  0  0  0  0270
   18.6521   13.3274   12.6610 C   0  0  0  0  0  0  0  0  0271
   19.2443   14.5149   13.0783 C   0  0  0  0  0  0  0  0  0272
   18.9832   14.9141   13.8991 H   0  0  0  0  0  0  0  0  0273
   20.2189   15.1174   12.2913 C   0  0  0  0  0  0  0  0  0274
   20.6041   14.5350   11.0895 C   0  0  0  0  0  0  0  0  0275
   21.2706   14.9477   10.5547 H   0  0  0  0  0  0  0  0  0276
   21.8455   18.8389   13.6746 C   0  0  0  0  0  0  0  0  0277
   20.4768   18.6007   13.6944 C   0  0  0  0  0  0  0  0  0278
   19.8833   19.2615   14.0344 H   0  0  0  0  0  0  0  0  0279
   19.9755   17.3964   13.2157 C   0  0  0  0  0  0  0  0  0280
   19.0394   17.2321   13.2289 H   0  0  0  0  0  0  0  0  0281
   20.8437   16.4303   12.7138 C   0  0  0  0  0  0  0  0  0282
   22.2124   16.6719   12.6940 C   0  0  0  0  0  0  0  0  0283
   22.8025   16.0110   12.3540 H   0  0  0  0  0  0  0  0  0284
   22.7129   17.8761   13.1760 C   0  0  0  0  0  0  0  0  0285
   23.6490   18.0371   13.1628 H   0  0  0  0  0  0  0  0  0286
   22.4310   20.0633   14.3216 C   0  0  0  0  0  0  0  0  0287
   21.8404   20.7945   14.1731 H   0  0  0  0  0  0  0  0  0288
   15.3222   12.0326   15.0149 C   0  0  0  0  0  0  0  0  0289
   16.4648   12.5156   15.6412 C   0  0  0  0  0  0  0  0  0290
   16.4957   12.5861   16.5897 H   0  0  0  0  0  0  0  0  0291
   17.5679   12.8981   14.8829 C   0  0  0  0  0  0  0  0  0292
   18.3462   13.2301   15.3121 H   0  0  0  0  0  0  0  0  0293
   17.5254   12.7974   13.4963 C   0  0  0  0  0  0  0  0  0294
   16.3794   12.3144   12.8700 C   0  0  0  0  0  0  0  0  0295
   16.3519   12.2473   11.9215 H   0  0  0  0  0  0  0  0  0296
   15.2797   11.9353   13.6283 C   0  0  0  0  0  0  0  0  0297
   14.5015   11.6032   13.1992 H   0  0  0  0  0  0  0  0  0298
   14.1847   11.7240   15.8997 C   0  0  0  0  0  0  0  0  0299
   14.2228   11.9018   16.8307 H   0  0  0  0  0  0  0  0  0300
  8  7  1  0  0  0
  9  8  2  0  0  0
 10  9  1  0  0  0
 11 10  2  0  0  0
 12  7  2  0  0  0
 12 11  1  0  0  0
 13  8  1  0  0  0
 14 13  1  0  0  0
 15 13  1  0  0  0
 16 13  1  0  0  0
 17  1  1  0  0  0
 17  7  1  0  0  0
 18 17  1  0  0  0
 19 17  1  0  0  0
 20 12  1  0  0  0
 21 20  1  0  0  0
 22 20  1  0  0  0
 23 20  1  0  0  0
 24 11  1  0  0  0
 25 24  1  0  0  0
 26 24  1  0  0  0
 27 10  1  0  0  0
 28 27  1  0  0  0
 29 27  1  0  0  0
 30 27  1  0  0  0
 31  2  1  0  0  0
 31  9  1  0  0  0
 32 31  1  0  0  0
 33 31  1  0  0  0
 35 34  2  0  0  0
 36 35  1  0  0  0
 37 36  2  0  0  0
 38 37  1  0  0  0
 39 38  2  0  0  0
 39 34  1  0  0  0
 40 35  1  0  0  0
 40  3  1  0  0  0
 41 40  1  0  0  0
 42 40  1  0  0  0
 43 36  1  0  0  0
 44 43  1  0  0  0
 45 43  1  0  0  0
 46 43  1  0  0  0
 47 37  1  0  0  0
 47  4  1  0  0  0
 48 47  1  0  0  0
 49 47  1  0  0  0
 50 38  1  0  0  0
 51 50  1  0  0  0
 52 50  1  0  0  0
 53 50  1  0  0  0
 54 39  1  0  0  0
 55 54  1  0  0  0
 56 54  1  0  0  0
 57 34  1  0  0  0
 58 57  1  0  0  0
 59 57  1  0  0  0
 60 57  1  0  0  0
 61  1  2  0  0  0
 62 61  1  0  0  0
 63 61  1  0  0  0
 64 63  2  0  0  0
 65 64  1  0  0  0
 66 64  1  0  0  0
 67 66  1  0  0  0
 68 66  2  0  0  0
 69 68  1  0  0  0
 70 69  1  0  0  0
 71 63  1  0  0  0
 71 69  2  0  0  0
 72 71  1  0  0  0
 74 73  2  0  0  0
 75 74  1  0  0  0
 76 74  1  0  0  0
 77 76  2  0  0  0
 78 77  1  0  0  0
 79 68  1  0  0  0
 79 77  1  0  0  0
 80 73  1  0  0  0
 80 79  2  0  0  0
 81 80  1  0  0  0
 83 82  2  0  0  0
 84 83  1  0  0  0
 85 83  1  0  0  0
 86 85  1  0  0  0
 87 85  2  0  0  0
 87 76  1  0  0  0
 88 87  1  0  0  0
 89 88  1  0  0  0
 90 88  2  0  0  0
 90 82  1  0  0  0
 91 90  1  0  0  0
 92  6  2  0  0  0
 92 82  1  0  0  0
 93 92  1  0  0  0
 95 94  2  0  0  0
 96 95  1  0  0  0
 97 95  1  0  0  0
 98 97  1  0  0  0
 99 97  2  0  0  0
 99 73  1  0  0  0
100 99  1  0  0  0
101100  1  0  0  0
102 94  1  0  0  0
102100  2  0  0  0
103102  1  0  0  0
104  3  2  0  0  0
104 94  1  0  0  0
105104  1  0  0  0
106  2  2  0  0  0
107106  1  0  0  0
108106  1  0  0  0
109108  2  0  0  0
110109  1  0  0  0
111109  1  0  0  0
112111  1  0  0  0
113111  2  0  0  0
114113  1  0  0  0
115114  1  0  0  0
116108  1  0  0  0
116114  2  0  0  0
117116  1  0  0  0
118113  1  0  0  0
119118  2  0  0  0
120119  1  0  0  0
121119  1  0  0  0
122121  2  0  0  0
123122  1  0  0  0
124122  1  0  0  0
125118  1  0  0  0
125124  2  0  0  0
126125  1  0  0  0
128127  2  0  0  0
129128  1  0  0  0
130128  1  0  0  0
131130  1  0  0  0
132124  1  0  0  0
132130  2  0  0  0
133132  1  0  0  0
134133  1  0  0  0
135127  1  0  0  0
135133  2  0  0  0
136135  1  0  0  0
137127  1  0  0  0
137  4  2  0  0  0
138137  1  0  0  0
140139  1  0  0  0
141140  1  0  0  0
142140  2  0  0  0
143142  1  0  0  0
144142  1  0  0  0
144121  1  0  0  0
145144  2  0  0  0
146145  1  0  0  0
147139  2  0  0  0
147145  1  0  0  0
148147  1  0  0  0
149139  1  0  0  0
149  5  2  0  0  0
150149  1  0  0  0
155 24  1  0  0  0
156 54  1  0  0  0
158157  1  0  0  0
159158  2  0  0  0
160159  1  0  0  0
161160  2  0  0  0
162157  2  0  0  0
162161  1  0  0  0
163158  1  0  0  0
164163  1  0  0  0
165163  1  0  0  0
166163  1  0  0  0
167151  1  0  0  0
167157  1  0  0  0
168167  1  0  0  0
169167  1  0  0  0
170162  1  0  0  0
171170  1  0  0  0
172170  1  0  0  0
173170  1  0  0  0
174161  1  0  0  0
174  5  1  0  0  0
175174  1  0  0  0
176174  1  0  0  0
177160  1  0  0  0
178177  1  0  0  0
179177  1  0  0  0
180177  1  0  0  0
181159  1  0  0  0
181152  1  0  0  0
182181  1  0  0  0
183181  1  0  0  0
185184  2  0  0  0
186185  1  0  0  0
187186  2  0  0  0
188187  1  0  0  0
189188  2  0  0  0
189184  1  0  0  0
190153  1  0  0  0
190185  1  0  0  0
191190  1  0  0  0
192190  1  0  0  0
193186  1  0  0  0
194193  1  0  0  0
195193  1  0  0  0
196193  1  0  0  0
197187  1  0  0  0
197154  1  0  0  0
198197  1  0  0  0
199197  1  0  0  0
200188  1  0  0  0
201200  1  0  0  0
202200  1  0  0  0
203200  1  0  0  0
204189  1  0  0  0
204  6  1  0  0  0
205204  1  0  0  0
206204  1  0  0  0
207184  1  0  0  0
208207  1  0  0  0
209207  1  0  0  0
210207  1  0  0  0
211151  2  0  0  0
212211  1  0  0  0
213211  1  0  0  0
214213  2  0  0  0
215214  1  0  0  0
216214  1  0  0  0
217216  1  0  0  0
218216  2  0  0  0
219218  1  0  0  0
220219  1  0  0  0
221219  2  0  0  0
221213  1  0  0  0
222221  1  0  0  0
224223  1  0  0  0
225224  1  0  0  0
226224  2  0  0  0
227226  1  0  0  0
228227  1  0  0  0
229227  2  0  0  0
229218  1  0  0  0
230229  1  0  0  0
230223  2  0  0  0
231230  1  0  0  0
233232  2  0  0  0
234233  1  0  0  0
235233  1  0  0  0
236235  1  0  0  0
237226  1  0  0  0
237235  2  0  0  0
238237  1  0  0  0
239238  1  0  0  0
240238  2  0  0  0
240232  1  0  0  0
241240  1  0  0  0
242156  2  0  0  0
242232  1  0  0  0
243242  1  0  0  0
245244  1  0  0  0
246245  1  0  0  0
247245  2  0  0  0
248247  1  0  0  0
249223  1  0  0  0
249247  1  0  0  0
250249  2  0  0  0
251250  1  0  0  0
252250  1  0  0  0
252244  2  0  0  0
253252  1  0  0  0
254244  1  0  0  0
254153  2  0  0  0
255254  1  0  0  0
256152  2  0  0  0
257256  1  0  0  0
258256  1  0  0  0
259258  2  0  0  0
260259  1  0  0  0
261259  1  0  0  0
262261  1  0  0  0
263261  2  0  0  0
264263  1  0  0  0
265264  1  0  0  0
266258  1  0  0  0
266264  2  0  0  0
267266  1  0  0  0
268263  1  0  0  0
269268  2  0  0  0
270269  1  0  0  0
271269  1  0  0  0
272271  2  0  0  0
273272  1  0  0  0
274272  1  0  0  0
275274  2  0  0  0
275268  1  0  0  0
276275  1  0  0  0
278277  2  0  0  0
279278  1  0  0  0
280278  1  0  0  0
281280  1  0  0  0
282280  2  0  0  0
282274  1  0  0  0
283282  1  0  0  0
284283  1  0  0  0
285277  1  0  0  0
285283  2  0  0  0
286285  1  0  0  0
287154  2  0  0  0
287277  1  0  0  0
288287  1  0  0  0
290289  1  0  0  0
291290  1  0  0  0
292290  2  0  0  0
293292  1  0  0  0
294271  1  0  0  0
294292  1  0  0  0
295294  2  0  0  0
296295  1  0  0  0
297295  1  0  0  0
297289  2  0  0  0
298297  1  0  0  0
299289  1  0  0  0
299155  2  0  0  0
300299  1  0  0  0
M  END
