
 OpenBabel10122215573D

122136  0  0  0  0  0  0  0  0999 V2000
    0.0000    6.7061    0.0000 Pd  0  2  1  0  0  0  0  0  0  0  0  0
    0.0000   -6.7061    0.0000 Pd  0  2  1  0  0  0  0  0  0  0  0  0
   14.6172    4.7881   -0.6066 C   0  0  0  0  0  0  0  0  0  0  0  0
   13.4123    4.8933    0.0000 N   0  0  0  0  0  0  0  0  0  0  0  0
   12.9018    3.7993    0.5932 C   0  0  0  0  0  0  0  0  0  0  0  0
   13.5659    2.5874    0.5996 C   0  0  0  0  0  0  0  0  0  0  0  0
   14.7939    2.4749   -0.0171 C   0  0  0  0  0  0  0  0  0  0  0  0
   15.4939    1.1926   -0.0090 C   0  0  0  0  0  0  0  0  0  0  0  0
   16.8711    1.1292   -0.0077 C   0  0  0  0  0  0  0  0  0  0  0  0
   17.5565   -0.0840    0.0004 C   0  0  0  0  0  0  0  0  0  0  0  0
   16.8578   -1.2740    0.0075 C   0  0  0  0  0  0  0  0  0  0  0  0
   15.4780   -1.2425    0.0064 C   0  0  0  0  0  0  0  0  0  0  0  0
   14.7497   -2.4936    0.0146 C   0  0  0  0  0  0  0  0  0  0  0  0
   13.5220   -2.5919    0.6235 C   0  0  0  0  0  0  0  0  0  0  0  0
   12.8806   -3.8096    0.5967 C   0  0  0  0  0  0  0  0  0  0  0  0
   13.4123   -4.8933   -0.0000 N   0  0  0  0  0  0  0  0  0  0  0  0
   14.6118   -4.8155   -0.6003 C   0  0  0  0  0  0  0  0  0  0  0  0
   15.2647   -3.6219   -0.5866 C   0  0  0  0  0  0  0  0  0  0  0  0
   14.8141   -0.0144   -0.0018 C   0  0  0  0  0  0  0  0  0  0  0  0
   15.3148    3.5984   -0.6246 C   0  0  0  0  0  0  0  0  0  0  0  0
   14.9944    5.6977   -1.0750 H   0  0  0  0  0  0  0  0  0  0  0  0
   11.9249    3.8319    1.1009 H   0  0  0  0  0  0  0  0  0  0  0  0
   13.1630    1.6997    1.0741 H   0  0  0  0  0  0  0  0  0  0  0  0
   17.4342    2.0590   -0.0132 H   0  0  0  0  0  0  0  0  0  0  0  0
   18.6349   -0.1061    0.0012 H   0  0  0  0  0  0  0  0  0  0  0  0
   17.3723   -2.2363    0.0139 H   0  0  0  0  0  0  0  0  0  0  0  0
   13.0431   -1.7455    1.1225 H   0  0  0  0  0  0  0  0  0  0  0  0
   11.9020   -3.9029    1.0772 H   0  0  0  0  0  0  0  0  0  0  0  0
   15.0316   -5.7081   -1.0820 H   0  0  0  0  0  0  0  0  0  0  0  0
   16.2391   -3.5986   -1.0858 H   0  0  0  0  0  0  0  0  0  0  0  0
   13.7460    0.0126   -0.0026 H   0  0  0  0  0  0  0  0  0  0  0  0
   16.2634    3.5747   -1.1195 H   0  0  0  0  0  0  0  0  0  0  0  0
    0.6066    4.7881   14.6172 C   0  0  0  0  0  0  0  0  0  0  0  0
   -0.0000    4.8933   13.4123 N   0  0  0  0  0  0  0  0  0  0  0  0
   -0.5932    3.7993   12.9018 C   0  0  0  0  0  0  0  0  0  0  0  0
   -0.5996    2.5874   13.5659 C   0  0  0  0  0  0  0  0  0  0  0  0
    0.0171    2.4749   14.7939 C   0  0  0  0  0  0  0  0  0  0  0  0
    0.0090    1.1926   15.4939 C   0  0  0  0  0  0  0  0  0  0  0  0
    0.0077    1.1292   16.8711 C   0  0  0  0  0  0  0  0  0  0  0  0
   -0.0004   -0.0840   17.5565 C   0  0  0  0  0  0  0  0  0  0  0  0
   -0.0075   -1.2740   16.8578 C   0  0  0  0  0  0  0  0  0  0  0  0
   -0.0064   -1.2425   15.4780 C   0  0  0  0  0  0  0  0  0  0  0  0
   -0.0146   -2.4936   14.7497 C   0  0  0  0  0  0  0  0  0  0  0  0
   -0.6235   -2.5919   13.5220 C   0  0  0  0  0  0  0  0  0  0  0  0
   -0.5967   -3.8096   12.8806 C   0  0  0  0  0  0  0  0  0  0  0  0
    0.0000   -4.8933   13.4123 N   0  0  0  0  0  0  0  0  0  0  0  0
    0.6003   -4.8155   14.6118 C   0  0  0  0  0  0  0  0  0  0  0  0
    0.5866   -3.6219   15.2647 C   0  0  0  0  0  0  0  0  0  0  0  0
    0.0018   -0.0144   14.8141 C   0  0  0  0  0  0  0  0  0  0  0  0
    0.6246    3.5984   15.3148 C   0  0  0  0  0  0  0  0  0  0  0  0
    1.0750    5.6977   14.9944 H   0  0  0  0  0  0  0  0  0  0  0  0
   -1.1009    3.8319   11.9249 H   0  0  0  0  0  0  0  0  0  0  0  0
   -1.0741    1.6997   13.1630 H   0  0  0  0  0  0  0  0  0  0  0  0
    0.0132    2.0590   17.4342 H   0  0  0  0  0  0  0  0  0  0  0  0
   -0.0012   -0.1061   18.6349 H   0  0  0  0  0  0  0  0  0  0  0  0
   -0.0139   -2.2363   17.3723 H   0  0  0  0  0  0  0  0  0  0  0  0
   -1.1225   -1.7455   13.0431 H   0  0  0  0  0  0  0  0  0  0  0  0
   -1.0772   -3.9029   11.9020 H   0  0  0  0  0  0  0  0  0  0  0  0
    1.0820   -5.7081   15.0316 H   0  0  0  0  0  0  0  0  0  0  0  0
    1.0858   -3.5986   16.2391 H   0  0  0  0  0  0  0  0  0  0  0  0
    0.0026    0.0126   13.7460 H   0  0  0  0  0  0  0  0  0  0  0  0
    1.1195    3.5747   16.2634 H   0  0  0  0  0  0  0  0  0  0  0  0
  -14.6172    4.7881    0.6066 C   0  0  0  0  0  0  0  0  0  0  0  0
  -13.4123    4.8933   -0.0000 N   0  0  0  0  0  0  0  0  0  0  0  0
  -12.9018    3.7993   -0.5932 C   0  0  0  0  0  0  0  0  0  0  0  0
  -13.5659    2.5874   -0.5996 C   0  0  0  0  0  0  0  0  0  0  0  0
  -14.7939    2.4749    0.0171 C   0  0  0  0  0  0  0  0  0  0  0  0
  -15.4939    1.1926    0.0090 C   0  0  0  0  0  0  0  0  0  0  0  0
  -16.8711    1.1292    0.0077 C   0  0  0  0  0  0  0  0  0  0  0  0
  -17.5565   -0.0840   -0.0004 C   0  0  0  0  0  0  0  0  0  0  0  0
  -16.8578   -1.2740   -0.0075 C   0  0  0  0  0  0  0  0  0  0  0  0
  -15.4780   -1.2425   -0.0064 C   0  0  0  0  0  0  0  0  0  0  0  0
  -14.7497   -2.4936   -0.0146 C   0  0  0  0  0  0  0  0  0  0  0  0
  -13.5220   -2.5919   -0.6235 C   0  0  0  0  0  0  0  0  0  0  0  0
  -12.8806   -3.8096   -0.5967 C   0  0  0  0  0  0  0  0  0  0  0  0
  -13.4123   -4.8933    0.0000 N   0  0  0  0  0  0  0  0  0  0  0  0
  -14.6118   -4.8155    0.6003 C   0  0  0  0  0  0  0  0  0  0  0  0
  -15.2647   -3.6219    0.5866 C   0  0  0  0  0  0  0  0  0  0  0  0
  -14.8141   -0.0144    0.0018 C   0  0  0  0  0  0  0  0  0  0  0  0
  -15.3148    3.5984    0.6246 C   0  0  0  0  0  0  0  0  0  0  0  0
  -14.9944    5.6977    1.0750 H   0  0  0  0  0  0  0  0  0  0  0  0
  -11.9249    3.8319   -1.1009 H   0  0  0  0  0  0  0  0  0  0  0  0
  -13.1630    1.6997   -1.0741 H   0  0  0  0  0  0  0  0  0  0  0  0
  -17.4342    2.0590    0.0132 H   0  0  0  0  0  0  0  0  0  0  0  0
  -18.6349   -0.1061   -0.0012 H   0  0  0  0  0  0  0  0  0  0  0  0
  -17.3723   -2.2363   -0.0139 H   0  0  0  0  0  0  0  0  0  0  0  0
  -13.0431   -1.7455   -1.1225 H   0  0  0  0  0  0  0  0  0  0  0  0
  -11.9020   -3.9029   -1.0772 H   0  0  0  0  0  0  0  0  0  0  0  0
  -15.0316   -5.7081    1.0820 H   0  0  0  0  0  0  0  0  0  0  0  0
  -16.2391   -3.5986    1.0858 H   0  0  0  0  0  0  0  0  0  0  0  0
  -13.7460    0.0126    0.0026 H   0  0  0  0  0  0  0  0  0  0  0  0
  -16.2634    3.5747    1.1195 H   0  0  0  0  0  0  0  0  0  0  0  0
   -0.6066    4.7881  -14.6172 C   0  0  0  0  0  0  0  0  0  0  0  0
    0.0000    4.8933  -13.4123 N   0  0  0  0  0  0  0  0  0  0  0  0
    0.5932    3.7993  -12.9018 C   0  0  0  0  0  0  0  0  0  0  0  0
    0.5996    2.5874  -13.5659 C   0  0  0  0  0  0  0  0  0  0  0  0
   -0.0171    2.4749  -14.7939 C   0  0  0  0  0  0  0  0  0  0  0  0
   -0.0090    1.1926  -15.4939 C   0  0  0  0  0  0  0  0  0  0  0  0
   -0.0077    1.1292  -16.8711 C   0  0  0  0  0  0  0  0  0  0  0  0
    0.0004   -0.0840  -17.5565 C   0  0  0  0  0  0  0  0  0  0  0  0
    0.0075   -1.2740  -16.8578 C   0  0  0  0  0  0  0  0  0  0  0  0
    0.0064   -1.2425  -15.4780 C   0  0  0  0  0  0  0  0  0  0  0  0
    0.0146   -2.4936  -14.7497 C   0  0  0  0  0  0  0  0  0  0  0  0
    0.6235   -2.5919  -13.5220 C   0  0  0  0  0  0  0  0  0  0  0  0
    0.5967   -3.8096  -12.8806 C   0  0  0  0  0  0  0  0  0  0  0  0
   -0.0000   -4.8933  -13.4123 N   0  0  0  0  0  0  0  0  0  0  0  0
   -0.6003   -4.8155  -14.6118 C   0  0  0  0  0  0  0  0  0  0  0  0
   -0.5866   -3.6219  -15.2647 C   0  0  0  0  0  0  0  0  0  0  0  0
   -0.0018   -0.0144  -14.8141 C   0  0  0  0  0  0  0  0  0  0  0  0
   -0.6246    3.5984  -15.3148 C   0  0  0  0  0  0  0  0  0  0  0  0
   -1.0750    5.6977  -14.9944 H   0  0  0  0  0  0  0  0  0  0  0  0
    1.1009    3.8319  -11.9249 H   0  0  0  0  0  0  0  0  0  0  0  0
    1.0741    1.6997  -13.1630 H   0  0  0  0  0  0  0  0  0  0  0  0
   -0.0132    2.0590  -17.4342 H   0  0  0  0  0  0  0  0  0  0  0  0
    0.0012   -0.1061  -18.6349 H   0  0  0  0  0  0  0  0  0  0  0  0
    0.0139   -2.2363  -17.3723 H   0  0  0  0  0  0  0  0  0  0  0  0
    1.1225   -1.7455  -13.0431 H   0  0  0  0  0  0  0  0  0  0  0  0
    1.0772   -3.9029  -11.9020 H   0  0  0  0  0  0  0  0  0  0  0  0
   -1.0820   -5.7081  -15.0316 H   0  0  0  0  0  0  0  0  0  0  0  0
   -1.0858   -3.5986  -16.2391 H   0  0  0  0  0  0  0  0  0  0  0  0
   -0.0026    0.0126  -13.7460 H   0  0  0  0  0  0  0  0  0  0  0  0
   -1.1195    3.5747  -16.2634 H   0  0  0  0  0  0  0  0  0  0  0  0
  1  4  9  1  0  0  0
  2 16  9  1  0  0  0
  3  4  2  0  0  0  0
  3 21  1  0  0  0  0
  4  5  1  0  0  0  0
  5  6  2  0  0  0  0
  5 22  1  0  0  0  0
  6  7  1  0  0  0  0
  6 23  1  0  0  0  0
  7  8  1  0  0  0  0
  7 20  2  0  0  0  0
  8  9  2  0  0  0  0
  9 10  1  0  0  0  0
  9 24  1  0  0  0  0
 10 11  2  0  0  0  0
 10 25  1  0  0  0  0
 11 12  1  0  0  0  0
 11 26  1  0  0  0  0
 12 13  1  0  0  0  0
 12 19  2  0  0  0  0
 13 14  2  0  0  0  0
 14 15  1  0  0  0  0
 14 27  1  0  0  0  0
 15 16  2  0  0  0  0
 15 28  1  0  0  0  0
 16 17  1  0  0  0  0
 17 18  2  0  0  0  0
 17 29  1  0  0  0  0
 18 13  1  0  0  0  0
 18 30  1  0  0  0  0
 19  8  1  0  0  0  0
 19 31  1  0  0  0  0
 20  3  1  0  0  0  0
 20 32  1  0  0  0  0
 33 34  2  0  0  0  0
 33 51  1  0  0  0  0
 34 35  1  0  0  0  0
 34  1  9  0  0  0  0
 35 36  2  0  0  0  0
 35 52  1  0  0  0  0
 36 37  1  0  0  0  0
 36 53  1  0  0  0  0
 37 38  1  0  0  0  0
 37 50  2  0  0  0  0
 38 39  2  0  0  0  0
 39 40  1  0  0  0  0
 39 54  1  0  0  0  0
 40 41  2  0  0  0  0
 40 55  1  0  0  0  0
 41 42  1  0  0  0  0
 41 56  1  0  0  0  0
 42 43  1  0  0  0  0
 42 49  2  0  0  0  0
 43 44  2  0  0  0  0
 44 45  1  0  0  0  0
 44 57  1  0  0  0  0
 45 46  2  0  0  0  0
 45 58  1  0  0  0  0
 46 47  1  0  0  0  0
 46  2  9  0  0  0  0
 47 48  2  0  0  0  0
 47 59  1  0  0  0  0
 48 43  1  0  0  0  0
 48 60  1  0  0  0  0
 49 38  1  0  0  0  0
 49 61  1  0  0  0  0
 50 33  1  0  0  0  0
 50 62  1  0  0  0  0
 63 64  2  0  0  0  0
 63 81  1  0  0  0  0
 64 65  1  0  0  0  0
 64  1  9  0  0  0  0
 65 66  2  0  0  0  0
 65 82  1  0  0  0  0
 66 67  1  0  0  0  0
 66 83  1  0  0  0  0
 67 68  1  0  0  0  0
 67 80  2  0  0  0  0
 68 69  2  0  0  0  0
 69 70  1  0  0  0  0
 69 84  1  0  0  0  0
 70 71  2  0  0  0  0
 70 85  1  0  0  0  0
 71 72  1  0  0  0  0
 71 86  1  0  0  0  0
 72 73  1  0  0  0  0
 72 79  2  0  0  0  0
 73 74  2  0  0  0  0
 74 75  1  0  0  0  0
 74 87  1  0  0  0  0
 75 76  2  0  0  0  0
 75 88  1  0  0  0  0
 76 77  1  0  0  0  0
 76  2  9  0  0  0  0
 77 78  2  0  0  0  0
 77 89  1  0  0  0  0
 78 73  1  0  0  0  0
 78 90  1  0  0  0  0
 79 68  1  0  0  0  0
 79 91  1  0  0  0  0
 80 63  1  0  0  0  0
 80 92  1  0  0  0  0
 93 94  2  0  0  0  0
 93111  1  0  0  0  0
 94 95  1  0  0  0  0
 94  1  9  0  0  0  0
 95 96  2  0  0  0  0
 95112  1  0  0  0  0
 96 97  1  0  0  0  0
 96113  1  0  0  0  0
 97 98  1  0  0  0  0
 97110  2  0  0  0  0
 98 99  2  0  0  0  0
 99100  1  0  0  0  0
 99114  1  0  0  0  0
100101  2  0  0  0  0
100115  1  0  0  0  0
101102  1  0  0  0  0
101116  1  0  0  0  0
102103  1  0  0  0  0
102109  2  0  0  0  0
103104  2  0  0  0  0
104105  1  0  0  0  0
104117  1  0  0  0  0
105106  2  0  0  0  0
105118  1  0  0  0  0
106107  1  0  0  0  0
106  2  9  0  0  0  0
107108  2  0  0  0  0
107119  1  0  0  0  0
108103  1  0  0  0  0
108120  1  0  0  0  0
109 98  1  0  0  0  0
109121  1  0  0  0  0
110 93  1  0  0  0  0
110122  1  0  0  0  0
M  CHG  2   1   2   2   2
M  END
