meta_ph
  MatStudio         3D                             0

 18 18  0  0  0  0  0  0  0  0999 V2000
   -2.5871    0.7008   -0.5010 C   0  0  0  0  0  0  0  0  0  1
   -1.1867    0.2098   -0.2812 C   0  0  0  0  0  0  0  0  0  2
   -0.1844    1.1143    0.1022 C   0  0  0  0  0  0  0  0  0  3
    1.1309    0.6721    0.3121 C   0  0  0  0  0  0  0  0  0  4
    1.4396   -0.6860    0.1357 C   0  0  0  0  0  0  0  0  0  5
    0.4439   -1.5891   -0.2460 C   0  0  0  0  0  0  0  0  0  6
   -0.8648   -1.1456   -0.4542 C   0  0  0  0  0  0  0  0  0  7
    2.1891    1.6534    0.7216 C   0  0  0  0  0  0  0  0  0  8
   -3.2671   -0.1254   -0.7993 H   0  0  0  0  0  0  0  0  0  0
   -2.5917    1.4674   -1.3043 H   0  0  0  0  0  0  0  0  0  0
   -2.9746    1.1544    0.4355 H   0  0  0  0  0  0  0  0  0  0
   -0.4279    2.1620    0.2371 H   0  0  0  0  0  0  0  0  0  0
    2.4485   -1.0469    0.2928 H   0  0  0  0  0  0  0  0  0  0
    0.6870   -2.6352   -0.3807 H   0  0  0  0  0  0  0  0  0  0
   -1.6240   -1.8591   -0.7497 H   0  0  0  0  0  0  0  0  0  0
    2.2882    2.4407   -0.0551 H   0  0  0  0  0  0  0  0  0  0
    3.1759    1.1596    0.8499 H   0  0  0  0  0  0  0  0  0  0
    1.9053    2.1276    1.6846 H   0  0  0  0  0  0  0  0  0  0
  1  2  1  0  0  0
  2  3  1  0  0  0
  3  4  2  0  0  0
  4  5  1  0  0  0
  5  6  2  0  0  0
  6  7  1  0  0  0
  2  7  2  0  0  0
  4  8  1  0  0  0
  1  9  1  0  0  0
  1 10  1  0  0  0
  1 11  1  0  0  0
  3 12  1  0  0  0
  5 13  1  0  0  0
  6 14  1  0  0  0
  7 15  1  0  0  0
  8 16  1  0  0  0
  8 17  1  0  0  0
  8 18  1  0  0  0
M  END
